Version 4
SHEET 1 880 680
WIRE 64 80 64 48
WIRE 64 176 64 160
WIRE 64 176 -16 176
WIRE 128 176 64 176
WIRE 304 176 208 176
WIRE 368 176 304 176
FLAG 304 256 0
FLAG 368 176 out
IOPIN 368 176 Out
SYMBOL Fontes\\+12V 64 48 R0
SYMATTR InstName U1
SYMBOL res 224 160 R90
WINDOW 0 0 56 VBottom 2
WINDOW 3 32 56 VTop 2
SYMATTR InstName R1
SYMATTR Value 20k
SYMBOL res 320 272 R180
WINDOW 0 36 76 Left 2
WINDOW 3 36 40 Left 2
SYMATTR InstName R2
SYMATTR Value 7.5k
SYMBOL res 48 64 R0
SYMATTR InstName R3
SYMATTR Value 10K
TEXT 112 280 Left 2 !.tran 1
