Version 4
SHEET 1 880 804
WIRE 416 -176 240 -176
WIRE 240 -160 240 -176
WIRE 416 -160 416 -176
WIRE 240 -16 240 -80
WIRE 416 -16 416 -80
WIRE 416 -16 240 -16
WIRE 240 64 240 -16
WIRE -16 144 -96 144
WIRE 192 144 -16 144
WIRE 240 224 240 160
WIRE -16 256 -16 144
WIRE 160 256 160 208
WIRE 160 448 160 336
WIRE 160 448 96 448
WIRE -16 496 -16 336
WIRE 32 496 -16 496
WIRE 160 496 160 448
WIRE 160 672 160 592
FLAG -176 144 0
FLAG 240 224 0
FLAG 160 672 0
SYMBOL Fontes\\+12V 240 -176 R0
WINDOW 38 0 -30 Center 2
SYMATTR InstName U2
SYMBOL res 224 -176 R0
SYMATTR InstName Peltier
SYMATTR Value 2.4
SYMBOL voltage -80 144 R90
WINDOW 0 -32 56 VBottom 2
WINDOW 3 -29 277 VTop 2
WINDOW 123 0 0 Left 0
WINDOW 39 0 0 Left 0
SYMATTR InstName Sinal
SYMATTR Value PULSE(3.3 0 0 1n 1n 1 6)
SYMBOL nmos 192 64 R0
SYMATTR InstName M1
SYMATTR Value IRLH5036
SYMBOL res -32 240 R0
SYMATTR InstName R1
SYMATTR Value 10k
SYMBOL res 400 -176 R0
SYMATTR InstName Cooler
SYMATTR Value 49.18
SYMBOL Fontes\\+12V 160 208 R0
WINDOW 38 0 -30 Center 2
SYMATTR InstName U3
SYMBOL npn 32 448 R0
SYMATTR InstName Q1
SYMATTR Value 2N2222
SYMBOL npn 96 496 R0
SYMATTR InstName Q2
SYMATTR Value 2N2222
TEXT -440 200 Left 2 !.tran 12
